*HEADING
cubit(ast/Desktop/Doktorat/trelis/Exports_coarse_mesh/BRB_1.inp): 02/27/2020: 12
version: 16.5.4
**
********************************** P A R T S **********************************
*PART, NAME=Part-Default
**
********************************** N O D E S **********************************
*NODE, NSET=ALLNODES
 1377594,    3.705000e-01,    1.250000e-02,    1.250000e-02
 1377595,    3.702705e-01,    1.250000e-02,    1.468307e-02
 1377596,    3.695922e-01,    1.250000e-02,    1.677073e-02
 1377597,    3.684947e-01,    1.250000e-02,    1.867175e-02
 1377598,    3.670259e-01,    1.250000e-02,    2.030302e-02
 1377599,    3.652500e-01,    1.250000e-02,    2.159327e-02
 1377600,    3.632447e-01,    1.250000e-02,    2.248609e-02
 1377601,    3.610975e-01,    1.250000e-02,    2.294248e-02
 1377602,    3.589025e-01,    1.250000e-02,    2.294248e-02
 1377603,    3.567553e-01,    1.250000e-02,    2.248609e-02
 1377604,    3.547500e-01,    1.250000e-02,    2.159327e-02
 1377605,    3.529741e-01,    1.250000e-02,    2.030302e-02
 1377606,    3.515053e-01,    1.250000e-02,    1.867175e-02
 1377607,    3.504078e-01,    1.250000e-02,    1.677073e-02
 1377608,    3.497295e-01,    1.250000e-02,    1.468307e-02
 1377609,    3.495000e-01,    1.250000e-02,    1.250000e-02
 1377610,    3.497295e-01,    1.250000e-02,    1.031693e-02
 1377611,    3.504078e-01,    1.250000e-02,    8.229265e-03
 1377612,    3.515053e-01,    1.250000e-02,    6.328255e-03
 1377613,    3.529741e-01,    1.250000e-02,    4.696979e-03
** ... 6251 like lines cut
**
********************************** E L E M E N T S ****************************
*ELEMENT, TYPE=C3D8R, ELSET=BRB_1_block
  194874, 1402998, 1402967, 1402565, 1402564, 1382383, 1377662, 1377655, 1381923
  194875, 1402997, 1402998, 1402564, 1402563, 1382382, 1382383, 1381923, 1381922
  194876, 1402996, 1402997, 1402563, 1402562, 1382381, 1382382, 1381922, 1381921
  194877, 1402995, 1402996, 1402562, 1402561, 1382380, 1382381, 1381921, 1381920
  194878, 1402781, 1402995, 1402561, 1402560, 1382355, 1382380, 1381920, 1381919
  194879, 1402994, 1402962, 1402967, 1402998, 1382379, 1377661, 1377662, 1382383
  194880, 1402993, 1402994, 1402998, 1402997, 1382378, 1382379, 1382383, 1382382
  194881, 1402992, 1402993, 1402997, 1402996, 1382377, 1382378, 1382382, 1382381
  194882, 1402991, 1402992, 1402996, 1402995, 1382376, 1382377, 1382381, 1382380
  194883, 1402780, 1402991, 1402995, 1402781, 1382354, 1382376, 1382380, 1382355
  194884, 1402990, 1402957, 1402962, 1402994, 1382375, 1377660, 1377661, 1382379
  194885, 1402989, 1402990, 1402994, 1402993, 1382374, 1382375, 1382379, 1382378
  194886, 1402988, 1402989, 1402993, 1402992, 1382373, 1382374, 1382378, 1382377
  194887, 1402987, 1402988, 1402992, 1402991, 1382372, 1382373, 1382377, 1382376
  194888, 1402779, 1402987, 1402991, 1402780, 1382353, 1382372, 1382376, 1382354
  194889, 1402986, 1402952, 1402957, 1402990, 1382371, 1377659, 1377660, 1382375
  194890, 1402985, 1402986, 1402990, 1402989, 1382370, 1382371, 1382375, 1382374
  194891, 1402984, 1402985, 1402989, 1402988, 1382369, 1382370, 1382374, 1382373
  194892, 1402983, 1402984, 1402988, 1402987, 1382368, 1382369, 1382373, 1382372
  194893, 1402778, 1402983, 1402987, 1402779, 1382352, 1382368, 1382372, 1382353
** ... 4333 like lines cut
**
********************************** S I D E S E T S **********************************
*ELSET, ELSET=fixed_bc_clamped_S1
  196714,  196715,  196716,  196717,  196718,  196719,  196720,  196721,  196722,  196723,
  196724,  196725,  196726,  196727,  196728,  196729,  196730,  196731,  196732,  196733,
  196734,  196735,  196736,  196737,  196738,  196739,  196740,  196741,  196742,  196743,
  196744,  196745,  196746,  196747,  196748,  196749,  196750,  196751,  196752,  196753,
  196754,  196755,  196756,  196757,  196758,  196759,  196760,  196761,  196762,  196763,
  196764,  196765,  196766,  196767,  196768,  196769,  196770,  196771,  196772,  196773,
  196774,  196775,  196776,  196777,  196778,  196779,  196780,  196781,  196782,  196783,
  196784,  196785,  196786,  196787,  196788,  196789,  196790,  196791,  196792,  196793
*SURFACE, NAME=fixed_bc_clamped
fixed_bc_clamped_S1, S1
*ELSET, ELSET=contact_to_beam1_S2
  194874,  194875,  194876,  194877,  194878,  194879,  194880,  194881,  194882,  194883,
  194884,  194885,  194886,  194887,  194888,  194889,  194890,  194891,  194892,  194893,
  194894,  194895,  194896,  194897,  194898,  194899,  194900,  194901,  194902,  194903,
  194904,  194905,  194906,  194907,  194908,  194909,  194910,  194911,  194912,  194913
*SURFACE, NAME=contact_to_beam1
contact_to_beam1_S2, S2
*ELSET, ELSET=washer_area_bottom_S2
  177508,  177509,  177510,  177511,  177512,  177513,  177514,  177515,  177516,  177517,
  177518,  177519,  177520,  177521,  177522,  177523,  177524,  177525,  177526,  177527,
  177528,  177529,  177530,  177531,  177532,  177533,  177534,  177535,  177536,  177537,
  177538,  177539,  177540,  177541,  177542,  177543,  177544,  177545,  177546,  177547,
  177548,  177549,  177550,  177551,  177552,  177553,  177554,  177555,  177556,  177557,
  177558,  177559,  177560,  177561,  177562,  177563,  177564,  177565,  178096,  178097,
  178098,  178099,  178100,  178101,  178102,  178103,  178104,  178105,  178106,  178107,
  178108,  178109,  178110,  178111,  178112,  178113,  178114,  178115,  178116,  178117,
  178118,  178119,  178120,  178121,  178122,  178123,  178124,  178125,  178126,  178127,
  178128,  178129,  178130,  178131,  178132,  178133,  178134,  178135,  178136,  178137,
  178138,  178139,  178140,  178141,  178142,  178143,  178144,  178145,  178146,  178147,
  178148,  178149,  178150,  178151,  178152,  178153,  178154,  178155,  178156,  178157,
  178158,  178159,  178160,  178161,  178162,  178163,  178164,  178165,  178166,  178167,
  178168,  178169,  178170,  178171,  178172,  178173,  178174,  178175,  178176,  178177,
  178178,  178179,  178180,  178181,  178182,  178183,  178184,  178185,  178186,  178187,
  178188,  178189,  178190,  178191,  178192,  178193,  178194,  178195,  178196,  178197,
  178198,  178199,  178200,  178201,  178202,  178203,  178204,  178205,  178206
*SURFACE, NAME=washer_area_bottom
washer_area_bottom_S2, S2
**
********************************** P R O P E R T I E S ************************
*SOLID SECTION, ELSET=BRB_1_block, MATERIAL=Default-Steel
**
*END PART
**
**
**
********************************** E N D   P A R T S **********************************
**
**
********************************** A S S E M B L Y ************************************
**
*ASSEMBLY, NAME=ASSEMBLY1
**
*INSTANCE, NAME=Part-Default_1, PART=Part-Default
*END INSTANCE
**
*END ASSEMBLY
**
**
**
*MATERIAL, NAME = Default-Steel
*ELASTIC, TYPE=ISOTROPIC
2.068000e+05, 2.900000e-01
*DENSITY
7.000000e-06
*CONDUCTIVITY,TYPE=ISO
4.500000e-02
*SPECIFIC HEAT
5.000000e+02
**
**
************************************** H I S T O R Y *************************************
**
*PREPRINT
**
**************************************** S T E P 1 ***************************************
*STEP,INC=100,NAME=STEP1
**
*STATIC
1, 1, 1e-05, 1
**
**
**
**
*END STEP
**
**************************************** S T E P 2 ***************************************
*STEP,INC=100,NAME=STEP2
**
*STATIC
1, 1, 1e-05, 1
**
**
**
**
*END STEP
