*HEADING
cubit(sktop/Doktorat/trelis/Exports_coarse_mesh/whole_model.inp): 02/27/2020: 12
version: 16.5.4
**
********************************** P A R T S **********************************
*PART, NAME=Part-Default
**
********************************** N O D E S **********************************
*NODE, NSET=ALLNODES
 1377594,    3.705000e-01,    1.250000e-02,    1.250000e-02
 1377595,    3.702705e-01,    1.250000e-02,    1.468307e-02
 1377596,    3.695922e-01,    1.250000e-02,    1.677073e-02
 1377597,    3.684947e-01,    1.250000e-02,    1.867175e-02
 1377598,    3.670259e-01,    1.250000e-02,    2.030302e-02
 1377599,    3.652500e-01,    1.250000e-02,    2.159327e-02
 1377600,    3.632447e-01,    1.250000e-02,    2.248609e-02
 1377601,    3.610975e-01,    1.250000e-02,    2.294248e-02
 1377602,    3.589025e-01,    1.250000e-02,    2.294248e-02
 1377603,    3.567553e-01,    1.250000e-02,    2.248609e-02
 1377604,    3.547500e-01,    1.250000e-02,    2.159327e-02
 1377605,    3.529741e-01,    1.250000e-02,    2.030302e-02
 1377606,    3.515053e-01,    1.250000e-02,    1.867175e-02
 1377607,    3.504078e-01,    1.250000e-02,    1.677073e-02
 1377608,    3.497295e-01,    1.250000e-02,    1.468307e-02
 1377609,    3.495000e-01,    1.250000e-02,    1.250000e-02
 1377610,    3.497295e-01,    1.250000e-02,    1.031693e-02
 1377611,    3.504078e-01,    1.250000e-02,    8.229265e-03
 1377612,    3.515053e-01,    1.250000e-02,    6.328255e-03
 1377613,    3.529741e-01,    1.250000e-02,    4.696979e-03
** ... 11257 like lines cut
**
********************************** E L E M E N T S ****************************
*ELEMENT, TYPE=C3D8R, ELSET=BRB_1_block
  194874, 1402998, 1402967, 1402565, 1402564, 1382383, 1377662, 1377655, 1381923
  194875, 1402997, 1402998, 1402564, 1402563, 1382382, 1382383, 1381923, 1381922
  194876, 1402996, 1402997, 1402563, 1402562, 1382381, 1382382, 1381922, 1381921
  194877, 1402995, 1402996, 1402562, 1402561, 1382380, 1382381, 1381921, 1381920
  194878, 1402781, 1402995, 1402561, 1402560, 1382355, 1382380, 1381920, 1381919
  194879, 1402994, 1402962, 1402967, 1402998, 1382379, 1377661, 1377662, 1382383
  194880, 1402993, 1402994, 1402998, 1402997, 1382378, 1382379, 1382383, 1382382
  194881, 1402992, 1402993, 1402997, 1402996, 1382377, 1382378, 1382382, 1382381
  194882, 1402991, 1402992, 1402996, 1402995, 1382376, 1382377, 1382381, 1382380
  194883, 1402780, 1402991, 1402995, 1402781, 1382354, 1382376, 1382380, 1382355
  194884, 1402990, 1402957, 1402962, 1402994, 1382375, 1377660, 1377661, 1382379
  194885, 1402989, 1402990, 1402994, 1402993, 1382374, 1382375, 1382379, 1382378
  194886, 1402988, 1402989, 1402993, 1402992, 1382373, 1382374, 1382378, 1382377
  194887, 1402987, 1402988, 1402992, 1402991, 1382372, 1382373, 1382377, 1382376
  194888, 1402779, 1402987, 1402991, 1402780, 1382353, 1382372, 1382376, 1382354
  194889, 1402986, 1402952, 1402957, 1402990, 1382371, 1377659, 1377660, 1382375
  194890, 1402985, 1402986, 1402990, 1402989, 1382370, 1382371, 1382375, 1382374
  194891, 1402984, 1402985, 1402989, 1402988, 1382369, 1382370, 1382374, 1382373
  194892, 1402983, 1402984, 1402988, 1402987, 1382368, 1382369, 1382373, 1382372
  194893, 1402778, 1402983, 1402987, 1402779, 1382352, 1382368, 1382372, 1382353
** ... 4333 like lines cut
*ELEMENT, TYPE=C3D8R, ELSET=BRB_2_block
  196794, 1404448, 1404473, 1405213, 1404742, 1404471, 1404711, 1405375, 1404897
  196795, 1404473, 1404474, 1405206, 1405213, 1404711, 1404710, 1405376, 1405375
  196796, 1404474, 1404475, 1405199, 1405206, 1404710, 1404709, 1405377, 1405376
  196797, 1404475, 1404476, 1405192, 1405199, 1404709, 1404708, 1405378, 1405377
  196798, 1404476, 1404477, 1405185, 1405192, 1404708, 1404707, 1405379, 1405378
  196799, 1404477, 1404478, 1405178, 1405185, 1404707, 1404706, 1405380, 1405379
  196800, 1404478, 1404479, 1405171, 1405178, 1404706, 1404705, 1405381, 1405380
  196801, 1404479, 1404480, 1405164, 1405171, 1404705, 1404704, 1405382, 1405381
  196802, 1404480, 1404481, 1405157, 1405164, 1404704, 1404703, 1405383, 1405382
  196803, 1404481, 1404472, 1405150, 1405157, 1404703, 1404482, 1405374, 1405383
  196804, 1404742, 1405213, 1405212, 1404741, 1404897, 1405375, 1405384, 1404898
  196805, 1405213, 1405206, 1405205, 1405212, 1405375, 1405376, 1405385, 1405384
  196806, 1405206, 1405199, 1405198, 1405205, 1405376, 1405377, 1405386, 1405385
  196807, 1405199, 1405192, 1405191, 1405198, 1405377, 1405378, 1405387, 1405386
  196808, 1405192, 1405185, 1405184, 1405191, 1405378, 1405379, 1405388, 1405387
  196809, 1405185, 1405178, 1405177, 1405184, 1405379, 1405380, 1405389, 1405388
  196810, 1405178, 1405171, 1405170, 1405177, 1405380, 1405381, 1405390, 1405389
  196811, 1405171, 1405164, 1405163, 1405170, 1405381, 1405382, 1405391, 1405390
  196812, 1405164, 1405157, 1405156, 1405163, 1405382, 1405383, 1405392, 1405391
  196813, 1405157, 1405150, 1405149, 1405156, 1405383, 1405374, 1405373, 1405392
** ... 4015 like lines cut
**
********************************** S I D E S E T S **********************************
*ELSET, ELSET=fixed_bc_clamped_S1
  196714,  196715,  196716,  196717,  196718,  196719,  196720,  196721,  196722,  196723,
  196724,  196725,  196726,  196727,  196728,  196729,  196730,  196731,  196732,  196733,
  196734,  196735,  196736,  196737,  196738,  196739,  196740,  196741,  196742,  196743,
  196744,  196745,  196746,  196747,  196748,  196749,  196750,  196751,  196752,  196753,
  196754,  196755,  196756,  196757,  196758,  196759,  196760,  196761,  196762,  196763,
  196764,  196765,  196766,  196767,  196768,  196769,  196770,  196771,  196772,  196773,
  196774,  196775,  196776,  196777,  196778,  196779,  196780,  196781,  196782,  196783,
  196784,  196785,  196786,  196787,  196788,  196789,  196790,  196791,  196792,  196793
*SURFACE, NAME=fixed_bc_clamped
fixed_bc_clamped_S1, S1
*ELSET, ELSET=fixed_bc_clamped_2_S1
  196794,  196795,  196796,  196797,  196798,  196799,  196800,  196801,  196802,  196803,
  196804,  196805,  196806,  196807,  196808,  196809,  196810,  196811,  196812,  196813,
  196814,  196815,  196816,  196817,  196818,  196819,  196820,  196821,  196822,  196823,
  196824,  196825,  196826,  196827,  196828,  196829,  196830,  196831,  196832,  196833,
  196834,  196835,  196836,  196837,  196838,  196839,  196840,  196841,  196842,  196843,
  196844,  196845,  196846,  196847,  196848,  196849,  196850,  196851,  196852,  196853,
  196854,  196855,  196856,  196857,  196858,  196859,  196860,  196861,  196862,  196863,
  196864,  196865,  196866,  196867,  196868,  196869,  196870,  196871,  196872,  196873
*SURFACE, NAME=fixed_bc_clamped_2
fixed_bc_clamped_2_S1, S1
*ELSET, ELSET=contact_to_beam1_S2
  194874,  194875,  194876,  194877,  194878,  194879,  194880,  194881,  194882,  194883,
  194884,  194885,  194886,  194887,  194888,  194889,  194890,  194891,  194892,  194893,
  194894,  194895,  194896,  194897,  194898,  194899,  194900,  194901,  194902,  194903,
  194904,  194905,  194906,  194907,  194908,  194909,  194910,  194911,  194912,  194913
*SURFACE, NAME=contact_to_beam1
contact_to_beam1_S2, S2
*ELSET, ELSET=contact_to_beam_2_S2
  198639,  198640,  198641,  198642,  198643,  198649,  198650,  198651,  198652,  198653,
  198659,  198660,  198661,  198662,  198663,  198669,  198670,  198671,  198672,  198673,
  198679,  198680,  198681,  198682,  198683,  198689,  198690,  198691,  198692,  198693,
  198699,  198700,  198701,  198702,  198703,  198709,  198710,  198711,  198712,  198713
*SURFACE, NAME=contact_to_beam_2
contact_to_beam_2_S2, S2
*ELSET, ELSET=washer_area_top_S1
  179941,  179942,  179943,  179944,  179945,  179946,  179947,  179948,  179949,  179950,
  179951,  179952,  179953,  179954,  179955,  179956,  179957,  179958,  179959,  179960,
  179961,  179962,  179963,  179964,  179965,  179966,  179967,  179968,  179969,  179970,
  179971,  179972,  179973,  179974,  179975,  179976,  179977,  179978,  179979,  179980,
  179981,  179982,  179983,  179984,  179985,  179986,  179987,  179988,  179989,  179990,
  179991,  179992,  179993,  179994,  179995,  179996,  179997,  179998,  180211,  180212,
  180213,  180214,  180215,  180216,  180217,  180218,  180219,  180220,  180221,  180222,
  180223,  180224,  180225,  180226,  180227,  180228,  180229,  180230,  180231,  180232,
  180233,  180234,  180235,  180236,  180237,  180238,  180239,  180240,  180241,  180242,
  180243,  180244,  180245,  180246,  180247,  180248,  180249,  180250,  180251,  180252,
  180253,  180254,  180255,  180256,  180257,  180258,  180259,  180260,  180261,  180262,
  180263,  180496,  180497,  180498,  180499,  180500,  180501,  180502,  180503,  180504,
  180505,  180506,  180507,  180508,  180509,  180510,  180511,  180512,  180513,  180514,
  180515,  180516,  180517,  180518,  180519,  180520,  180521,  180522,  180523,  180524,
  180525,  180526,  180527,  180528,  180529,  180530,  180531,  180532,  180533,  180534,
  180535,  180536,  180537,  180538,  180539,  180540,  180541,  180542,  180543,  180544,
  180545,  180546,  180547,  180548,  180549,  180550,  180551,  180552,  180553
*SURFACE, NAME=washer_area_top
washer_area_top_S1, S1
*ELSET, ELSET=washer_area_bottom_S2
  177508,  177509,  177510,  177511,  177512,  177513,  177514,  177515,  177516,  177517,
  177518,  177519,  177520,  177521,  177522,  177523,  177524,  177525,  177526,  177527,
  177528,  177529,  177530,  177531,  177532,  177533,  177534,  177535,  177536,  177537,
  177538,  177539,  177540,  177541,  177542,  177543,  177544,  177545,  177546,  177547,
  177548,  177549,  177550,  177551,  177552,  177553,  177554,  177555,  177556,  177557,
  177558,  177559,  177560,  177561,  177562,  177563,  177564,  177565,  178096,  178097,
  178098,  178099,  178100,  178101,  178102,  178103,  178104,  178105,  178106,  178107,
  178108,  178109,  178110,  178111,  178112,  178113,  178114,  178115,  178116,  178117,
  178118,  178119,  178120,  178121,  178122,  178123,  178124,  178125,  178126,  178127,
  178128,  178129,  178130,  178131,  178132,  178133,  178134,  178135,  178136,  178137,
  178138,  178139,  178140,  178141,  178142,  178143,  178144,  178145,  178146,  178147,
  178148,  178149,  178150,  178151,  178152,  178153,  178154,  178155,  178156,  178157,
  178158,  178159,  178160,  178161,  178162,  178163,  178164,  178165,  178166,  178167,
  178168,  178169,  178170,  178171,  178172,  178173,  178174,  178175,  178176,  178177,
  178178,  178179,  178180,  178181,  178182,  178183,  178184,  178185,  178186,  178187,
  178188,  178189,  178190,  178191,  178192,  178193,  178194,  178195,  178196,  178197,
  178198,  178199,  178200,  178201,  178202,  178203,  178204,  178205,  178206
*SURFACE, NAME=washer_area_bottom
washer_area_bottom_S2, S2
*ELSET, ELSET=contact_area_S2
  178439,  178440,  178441,  178442,  178443,  178444,  178445,  178446,  178447,  178448,
  178449,  178450,  178451,  178452,  178453,  178454,  178455,  178456,  178457,  178458,
  178459,  178460,  178461,  178462,  178463,  178464,  178465,  178466,  178467,  178468,
  178469,  178470,  178471,  178472,  178473,  178474,  178475,  178476,  178477,  178478,
  178479,  178480,  178481,  178482,  178483,  178484,  178485,  178486,  178487,  178488,
  178489,  178490,  178491,  178492,  178493,  178494,  178495,  178496,  178497,  178498,
  178499,  178500,  178501,  178502,  178503,  178504,  178505,  178506,  178507,  178508,
  178509,  178510,  178511,  178512,  178513,  178514,  178515,  178516,  178517,  178518,
  178519,  178520,  178521,  178522,  178523,  178524,  178525,  178526,  178527,  178528,
  178529,  178530,  178531,  178532,  178533,  178534,  178535,  178536,  178537,  178538,
  178539,  178540,  178541,  178542,  178543,  178544,  178545,  178546,  178547,  178548,
  178549,  178550,  178551,  178552,  178553,  178554,  178555,  178556,  178557,  178558,
  178559,  178560,  178561,  178562,  178563,  178564,  178565,  178566,  178567,  178568,
  178569,  178570,  178571,  178572,  178573,  178574,  178575,  178576,  178577,  178578,
  178579,  178580,  178581,  178582,  178583,  178584,  178585,  178586,  178587,  178588,
  178589,  178590,  178591,  178592,  178593,  178594,  178595,  178596,  178597,  178598,
  178599,  178600,  178601,  178602,  178603,  178604,  178605,  178606,  178607,  178608,
  178609,  178610,  178611,  178612,  178613,  178614,  178615,  178616,  178617,  178618,
  178619,  178620,  178621,  178622,  178623,  178624,  178625,  178626,  178627,  178628,
  178629,  178630,  178631,  178632,  178633,  178634,  178635,  178636,  178637,  178638,
** ... 23 like lines cut
*SURFACE, NAME=contact_area
contact_area_S2, S2
**
********************************** P R O P E R T I E S ************************
*SOLID SECTION, ELSET=BRB_1_block, MATERIAL=Default-Steel
*SOLID SECTION, ELSET=BRB_2_block, MATERIAL=Default-Steel
**
*END PART
**
**
**
********************************** E N D   P A R T S **********************************
**
**
********************************** A S S E M B L Y ************************************
**
*ASSEMBLY, NAME=ASSEMBLY1
**
*INSTANCE, NAME=Part-Default_1, PART=Part-Default
*END INSTANCE
**
*END ASSEMBLY
**
**
**
*MATERIAL, NAME = Default-Steel
*ELASTIC, TYPE=ISOTROPIC
2.068000e+05, 2.900000e-01
*DENSITY
7.000000e-06
*CONDUCTIVITY,TYPE=ISO
4.500000e-02
*SPECIFIC HEAT
5.000000e+02
**
**
************************************** H I S T O R Y *************************************
**
*PREPRINT
**
**************************************** S T E P 1 ***************************************
*STEP,INC=100,NAME=STEP1
**
*STATIC
1, 1, 1e-05, 1
**
**
**
**
*END STEP
**
**************************************** S T E P 2 ***************************************
*STEP,INC=100,NAME=STEP2
**
*STATIC
1, 1, 1e-05, 1
**
**
**
**
*END STEP
